Version 4
SHEET 1 956 680
WIRE 112 112 -32 112
WIRE 528 112 320 112
WIRE 528 160 528 112
WIRE 112 240 -32 240
WIRE 528 240 528 192
WIRE 528 240 320 240
FLAG -32 112 VIN1
IOPIN -32 112 In
FLAG -32 240 VIN2
IOPIN -32 240 In
FLAG 208 64 VDD
IOPIN 208 64 In
FLAG 752 128 VDD
IOPIN 752 128 In
FLAG 208 192 VDD
IOPIN 208 192 In
FLAG 864 176 VOUT
IOPIN 864 176 Out
FLAG 608 128 VDD
IOPIN 608 128 In
SYMBOL not 224 112 R0
SYMATTR InstName X1
SYMBOL not 224 240 R0
SYMATTR InstName X2
SYMBOL not 768 176 R0
SYMATTR InstName X4
SYMBOL or 592 176 R0
SYMATTR InstName X3
