Version 4
SHEET 1 1308 1032
WIRE 112 480 -160 480
WIRE 272 496 256 496
WIRE 464 496 272 496
WIRE 112 512 -80 512
WIRE 752 512 624 512
WIRE 752 560 752 512
WIRE 976 576 880 576
WIRE -368 592 -512 592
WIRE -160 592 -160 480
WIRE 32 592 -160 592
WIRE 32 608 32 592
WIRE 112 608 32 608
WIRE 272 624 256 624
WIRE 464 624 272 624
WIRE 112 640 32 640
WIRE 752 640 752 592
WIRE 752 640 624 640
WIRE 976 656 976 576
WIRE -512 672 -512 592
WIRE -16 672 -512 672
WIRE -16 736 -16 672
WIRE 112 736 -16 736
WIRE -368 752 -464 752
WIRE -80 752 -80 512
WIRE -80 752 -160 752
WIRE 272 752 256 752
WIRE 464 752 272 752
WIRE -80 768 -80 752
WIRE 112 768 -80 768
WIRE 784 768 624 768
WIRE 784 816 784 768
WIRE -464 832 -464 752
WIRE -80 832 -464 832
WIRE 32 832 32 640
WIRE 32 832 -80 832
WIRE 976 832 976 688
WIRE 976 832 912 832
WIRE -16 864 -16 736
WIRE 112 864 -16 864
WIRE -512 880 -512 672
WIRE -512 880 -560 880
WIRE 272 880 256 880
WIRE 464 880 272 880
WIRE -80 896 -80 832
WIRE 112 896 -80 896
WIRE 784 896 784 848
WIRE 784 896 624 896
WIRE -464 960 -464 832
WIRE -464 960 -560 960
FLAG -560 960 S1
IOPIN -560 960 In
FLAG -560 880 S0
IOPIN -560 880 In
FLAG 464 528 D0
IOPIN 464 528 In
FLAG 464 656 D1
IOPIN 464 656 In
FLAG 464 784 D2
IOPIN 464 784 In
FLAG 464 912 D3
IOPIN 464 912 In
FLAG 208 448 VDD
IOPIN 208 448 In
FLAG 208 576 VDD
IOPIN 208 576 In
FLAG 208 704 VDD
IOPIN 208 704 In
FLAG 208 832 VDD
IOPIN 208 832 In
FLAG -272 704 VDD
IOPIN -272 704 In
FLAG -272 544 VDD
IOPIN -272 544 In
FLAG 560 464 VDD
IOPIN 560 464 In
FLAG 560 592 VDD
IOPIN 560 592 In
FLAG 560 720 VDD
IOPIN 560 720 In
FLAG 560 848 VDD
IOPIN 560 848 In
FLAG 832 528 VDD
IOPIN 832 528 In
FLAG 864 784 VDD
IOPIN 864 784 In
FLAG 1056 624 VDD
IOPIN 1056 624 In
FLAG 1104 672 VOUT
IOPIN 1104 672 Out
SYMBOL not -256 592 R0
SYMATTR InstName X7
SYMBOL not -256 752 R0
SYMATTR InstName X8
SYMBOL and 576 512 R0
SYMATTR InstName X9
SYMBOL and 576 640 R0
SYMATTR InstName X10
SYMBOL and 576 768 R0
SYMATTR InstName X11
SYMBOL and 576 896 R0
SYMATTR InstName X13
SYMBOL or 816 576 R0
SYMATTR InstName X12
SYMBOL or 848 832 R0
SYMATTR InstName X14
SYMBOL or 1040 672 R0
SYMATTR InstName X15
SYMBOL and 224 496 R0
SYMATTR InstName X1
SYMBOL and 224 624 R0
SYMATTR InstName X2
SYMBOL and 224 752 R0
SYMATTR InstName X3
SYMBOL and 224 880 R0
SYMATTR InstName X4
