Version 4
SHEET 1 880 680
WIRE 96 -80 16 -80
WIRE 160 -80 112 -80
WIRE 80 48 16 48
WIRE -160 64 -512 64
WIRE 96 112 96 -80
WIRE 224 112 96 112
WIRE 112 128 112 -80
WIRE 224 128 112 128
WIRE 80 144 80 48
WIRE 160 144 80 144
WIRE 128 160 16 160
WIRE 160 160 160 144
WIRE 224 160 160 160
WIRE 592 160 336 160
WIRE 752 160 592 160
WIRE 128 176 128 160
WIRE 224 176 128 176
WIRE 224 192 144 192
WIRE 224 208 160 208
WIRE -304 240 -512 240
WIRE 144 272 144 192
WIRE 144 272 16 272
WIRE 160 384 160 208
WIRE 160 384 16 384
FLAG -192 32 0
FLAG -512 144 0
FLAG -512 320 0
FLAG 256 80 VDD
FLAG -192 -48 VDD
FLAG 592 240 0
FLAG 752 224 0
FLAG 16 128 0
FLAG 16 240 0
FLAG 16 352 0
FLAG 16 464 0
FLAG 16 0 0
FLAG 160 0 0
SYMBOL voltage -192 -64 R0
WINDOW 123 0 0 Left 0
WINDOW 39 0 0 Left 0
SYMATTR InstName V1
SYMATTR Value 1
SYMBOL voltage -512 224 R0
WINDOW 123 0 0 Left 0
WINDOW 39 0 0 Left 0
SYMATTR InstName V2
SYMATTR Value PULSE(0 1 1n 10p 10p 2n 6n)
SYMBOL voltage -512 48 R0
WINDOW 123 0 0 Left 0
WINDOW 39 0 0 Left 0
SYMATTR InstName V3
SYMATTR Value PULSE(0 1 1n 10p 10p 2n 6n)
SYMBOL res 576 144 R0
SYMATTR InstName R1
SYMATTR Value 100k
SYMBOL cap 736 160 R0
SYMATTR InstName C1
SYMATTR Value 100f
SYMBOL boe 304 160 R0
SYMATTR InstName X4
SYMBOL voltage 16 32 R0
WINDOW 123 0 0 Left 0
WINDOW 39 0 0 Left 0
SYMATTR InstName D0
SYMATTR Value 1
SYMBOL voltage 16 144 R0
WINDOW 123 0 0 Left 0
WINDOW 39 0 0 Left 0
SYMATTR InstName D1
SYMATTR Value 0
SYMBOL voltage 16 256 R0
WINDOW 123 0 0 Left 0
WINDOW 39 0 0 Left 0
SYMATTR InstName D2
SYMATTR Value 1
SYMBOL voltage 16 368 R0
WINDOW 123 0 0 Left 0
WINDOW 39 0 0 Left 0
SYMATTR InstName D3
SYMATTR Value 1
SYMBOL voltage 16 -96 R0
WINDOW 123 0 0 Left 0
WINDOW 39 0 0 Left 0
SYMATTR InstName S0
SYMATTR Value 1
SYMBOL voltage 160 -96 R0
WINDOW 123 0 0 Left 0
WINDOW 39 0 0 Left 0
SYMATTR InstName S1
SYMATTR Value 0
TEXT 360 -88 Left 2 !.tran 0 16n 0 1
