Version 4
SHEET 1 992 680
WIRE -240 192 -320 192
WIRE -80 192 -240 192
WIRE 80 192 -80 192
WIRE 128 272 128 208
WIRE 80 352 -320 352
WIRE 128 528 128 368
WIRE 128 528 -192 528
WIRE 400 528 128 528
WIRE 560 528 400 528
WIRE -192 560 -192 528
WIRE 128 560 128 528
WIRE 128 560 -32 560
WIRE -240 640 -240 192
WIRE -80 640 -80 192
FLAG -320 272 0
FLAG 400 608 0
FLAG 560 592 0
FLAG 128 112 VDD
FLAG 128 160 VDD
FLAG -464 64 VDD
FLAG -464 144 0
FLAG -320 432 0
FLAG -192 656 0
FLAG -32 656 0
FLAG -32 608 0
FLAG -192 608 0
FLAG 128 320 VDD
SYMBOL pmos4 80 112 R0
WINDOW 0 55 22 Left 2
WINDOW 3 47 74 Left 2
WINDOW 123 47 102 Left 2
SYMATTR InstName M2
SYMATTR Value2 l=90n w=400n
SYMBOL voltage -320 176 R0
WINDOW 123 0 0 Left 0
WINDOW 39 0 0 Left 0
SYMATTR InstName V1
SYMATTR Value PULSE(0 1 1n 10p 10p 2n 6n)
SYMBOL res 384 512 R0
SYMATTR InstName R1
SYMATTR Value 100k
SYMBOL cap 544 528 R0
SYMATTR InstName C1
SYMATTR Value 100f
SYMBOL voltage -464 48 R0
WINDOW 123 0 0 Left 0
WINDOW 39 0 0 Left 0
SYMATTR InstName VDD1
SYMATTR Value 1
SYMBOL voltage -320 336 R0
WINDOW 123 0 0 Left 0
WINDOW 39 0 0 Left 0
SYMATTR InstName V2
SYMATTR Value PULSE(0 1 1n 10p 10p 2n 6n)
SYMBOL pmos4 80 272 R0
WINDOW 123 56 100 Left 2
SYMATTR Value2 l=90n w=400n
SYMATTR InstName M1
SYMBOL nmos4 -240 560 R0
WINDOW 123 56 100 Left 2
SYMATTR Value2 l=90n w=200n
SYMATTR InstName M3
SYMBOL nmos4 -80 560 R0
WINDOW 123 56 100 Left 2
SYMATTR Value2 l=90n w=200n
SYMATTR InstName M4
TEXT -288 24 Left 2 !.include 90nm_bulk.txt
TEXT 352 72 Left 2 !.tran 0 16n 0 1
