Version 4
SHEET 1 880 680
FLAG 48 128 VIN1
IOPIN 48 128 In
FLAG 48 192 VIN2
IOPIN 48 192 In
FLAG 528 160 VOUT
IOPIN 528 160 Out
FLAG 192 80 VDD
IOPIN 192 80 In
FLAG 416 112 VDD
IOPIN 416 112 In
SYMBOL nor 208 128 R0
SYMATTR InstName X1
SYMBOL not 432 160 R0
SYMATTR InstName X2
